                                  MODFLOW-2005     
      U.S. GEOLOGICAL SURVEY MODULAR FINITE-DIFFERENCE GROUND-WATER FLOW MODEL
                            VERSION 1.12.00 2/3/2017

 LIST FILE: model\VM_1984.list
                         UNIT    2

 OPENING model\VM_1984.dis
 FILE TYPE:DIS   UNIT   11   STATUS:OLD    
 FORMAT:FORMATTED              ACCESS:SEQUENTIAL          

 OPENING model\VM_1984.bas
 FILE TYPE:BAS6   UNIT   13   STATUS:OLD    
 FORMAT:FORMATTED              ACCESS:SEQUENTIAL          

 OPENING model\VM_1984.lpf
 FILE TYPE:LPF   UNIT   15   STATUS:OLD    
 FORMAT:FORMATTED              ACCESS:SEQUENTIAL          

 OPENING model\VM_1984.rch
 FILE TYPE:RCH   UNIT   19   STATUS:OLD    
 FORMAT:FORMATTED              ACCESS:SEQUENTIAL          

 OPENING model\VM_1984.wel
 FILE TYPE:WEL   UNIT   20   STATUS:OLD    
 FORMAT:FORMATTED              ACCESS:SEQUENTIAL          

 OPENING model\VM_1984.oc
 FILE TYPE:OC   UNIT   14   STATUS:OLD    
 FORMAT:FORMATTED              ACCESS:SEQUENTIAL          

 OPENING model\VM_1984.pcg
 FILE TYPE:PCG   UNIT   27   STATUS:OLD    
 FORMAT:FORMATTED              ACCESS:SEQUENTIAL          

 OPENING model\VM_1984.hob
 FILE TYPE:HOB   UNIT   39   STATUS:OLD    
 FORMAT:FORMATTED              ACCESS:SEQUENTIAL          

 OPENING model\VM_1984.cbc
 FILE TYPE:DATA(BINARY)   UNIT    9   STATUS:REPLACE
 FORMAT:BINARY                 ACCESS:SEQUENTIAL          

 OPENING model\VM_1984.hds
 FILE TYPE:DATA(BINARY)   UNIT   51   STATUS:REPLACE
 FORMAT:BINARY                 ACCESS:SEQUENTIAL          

 OPENING model\VM_1984.ddn
 FILE TYPE:DATA(BINARY)   UNIT   52   STATUS:REPLACE
 FORMAT:BINARY                 ACCESS:SEQUENTIAL          

 OPENING model\VM_1984.hob.out
 FILE TYPE:DATA   UNIT   42   STATUS:UNKNOWN
 FORMAT:FORMATTED              ACCESS:SEQUENTIAL          

 BAS -- BASIC PACKAGE, VERSION 7, 5/2/2005 INPUT READ FROM UNIT   13
 
 MODFLOW was compiled using mixed precision
 Precision of REAL variables:           6
 Precision of DOUBLE PRECISION variables:          15

 DISCRETIZATION INPUT DATA READ FROM UNIT   11
 # DIS package for  MODFLOW-2005, generated by Flopy.
    2 LAYERS       136 ROWS       168 COLUMNS
   12 STRESS PERIOD(S) IN SIMULATION
 MODEL TIME UNIT IS DAYS
 MODEL LENGTH UNIT IS METERS
  Confining bed flag for each layer:
   0   0

                     DELR =   500.000    

                     DELC =   500.000    



           TOP ELEVATION OF LAYER 1
 READING ON UNIT   11 WITH FORMAT: (168E15.6)          



             MODEL LAYER BOTTOM EL. FOR LAYER   1
 READING ON UNIT   11 WITH FORMAT: (168E15.6)          



             MODEL LAYER BOTTOM EL. FOR LAYER   2
 READING ON UNIT   11 WITH FORMAT: (168E15.6)          


 STRESS PERIOD     LENGTH       TIME STEPS     MULTIPLIER FOR DELT    SS FLAG
 ----------------------------------------------------------------------------
        1         31.00000         31                    1.000         TR
        2         29.00000         29                    1.000         TR
        3         31.00000         31                    1.000         TR
        4         30.00000         30                    1.000         TR
        5         31.00000         31                    1.000         TR
        6         30.00000         30                    1.000         TR
        7         31.00000         31                    1.000         TR
        8         31.00000         31                    1.000         TR
        9         30.00000         30                    1.000         TR
       10         31.00000         31                    1.000         TR
       11         30.00000         30                    1.000         TR
       12         31.00000         31                    1.000         TR

 TRANSIENT SIMULATION



 
 # BAS6 package for  MODFLOW-2005, generated by Flopy.                           
 THE FREE FORMAT OPTION HAS BEEN SELECTED
 When solver convergence criteria are not met,
 execution will continue unless the budget percent
 discrepancy is greater than:    3.0000
 CALCULATE FLOW BETWEEN ADJACENT CONSTANT-HEAD CELLS



                     BOUNDARY ARRAY FOR LAYER   1
 READING ON UNIT   13 WITH FORMAT: (168I10)            



                     BOUNDARY ARRAY FOR LAYER   2
 READING ON UNIT   13 WITH FORMAT: (168I10)            

 AQUIFER HEAD WILL BE SET TO  -999.99     AT ALL NO-FLOW NODES (IBOUND=0).



                       INITIAL HEAD FOR LAYER   1
 READING ON UNIT   13 WITH FORMAT: (168E15.6)          



                       INITIAL HEAD FOR LAYER   2
 READING ON UNIT   13 WITH FORMAT: (168E15.6)          
 # OC package for  MODFLOW-2005, generated by Flopy.

 OUTPUT CONTROL IS SPECIFIED ONLY AT TIME STEPS FOR WHICH OUTPUT IS DESIRED
 COMPACT CELL-BY-CELL BUDGET FILES WILL BE WRITTEN
 AUXILIARY DATA WILL BE SAVED IN CELL-BY-CELL BUDGET FILES
 HEAD PRINT FORMAT CODE IS   0    DRAWDOWN PRINT FORMAT CODE IS   0
 HEADS WILL BE SAVED ON UNIT   51    DRAWDOWNS WILL BE SAVED ON UNIT   52

 LPF -- LAYER-PROPERTY FLOW PACKAGE, VERSION 7, 5/2/2005
         INPUT READ FROM UNIT   15
 # LPF package for  MODFLOW-2005, generated by Flopy.
 HEAD AT CELLS THAT CONVERT TO DRY= -1.00000E+30
 No named parameters

   LAYER FLAGS:
 LAYER       LAYTYP        LAYAVG         CHANI        LAYVKA        LAYWET
 ---------------------------------------------------------------------------
    1             0             0     1.000E+00             1             0
    2             0             0     1.000E+00             1             0

   INTERPRETATION OF LAYER FLAGS:
                        INTERBLOCK     HORIZONTAL    DATA IN
         LAYER TYPE   TRANSMISSIVITY   ANISOTROPY   ARRAY VKA   WETTABILITY
 LAYER      (LAYTYP)      (LAYAVG)       (CHANI)      (LAYVKA)      (LAYWET)
 ---------------------------------------------------------------------------
    1      CONFINED      HARMONIC     1.000E+00    ANISOTROPY  NON-WETTABLE
    2      CONFINED      HARMONIC     1.000E+00    ANISOTROPY  NON-WETTABLE

 WETTING CAPABILITY IS NOT ACTIVE IN ANY LAYER



              HYD. COND. ALONG ROWS FOR LAYER   1
 READING ON UNIT   15 WITH FORMAT: (168E15.6)          



            HORIZ. TO VERTICAL ANI. FOR LAYER   1
 READING ON UNIT   15 WITH FORMAT: (168E15.6)          



                   SPECIFIC STORAGE FOR LAYER   1
 READING ON UNIT   15 WITH FORMAT: (168E15.6)          



              HYD. COND. ALONG ROWS FOR LAYER   2
 READING ON UNIT   15 WITH FORMAT: (168E15.6)          



            HORIZ. TO VERTICAL ANI. FOR LAYER   2
 READING ON UNIT   15 WITH FORMAT: (168E15.6)          



                   SPECIFIC STORAGE FOR LAYER   2
 READING ON UNIT   15 WITH FORMAT: (168E15.6)          

 WEL -- WELL PACKAGE, VERSION 7, 5/2/2005 INPUT READ FROM UNIT   20
 # WEL package for  MODFLOW-2005, generated by Flopy.
 No named parameters
 MAXIMUM OF    345 ACTIVE WELLS AT ONE TIME


     0 Well parameters

 RCH -- RECHARGE PACKAGE, VERSION 7, 5/2/2005 INPUT READ FROM UNIT   19
 # RCH package for  MODFLOW-2005, generated by Flopy.
 No named parameters
 OPTION 3 -- RECHARGE TO HIGHEST ACTIVE NODE IN EACH VERTICAL COLUMN
 CELL-BY-CELL FLOWS WILL BE SAVED ON UNIT    9


     0 Recharge parameters

 PCG -- CONJUGATE-GRADIENT SOLUTION PACKAGE, VERSION 7, 5/2/2005
 # PCG package for  MODFLOW-2005, generated by Flopy.
 MAXIMUM OF     20 CALLS OF SOLUTION ROUTINE
 MAXIMUM OF     20 INTERNAL ITERATIONS PER CALL TO SOLUTION ROUTINE
 MATRIX PRECONDITIONING TYPE :    1



                                    SOLUTION BY THE CONJUGATE-GRADIENT METHOD
                                   -------------------------------------------
                    MAXIMUM NUMBER OF CALLS TO PCG ROUTINE =       20
                        MAXIMUM ITERATIONS PER CALL TO PCG =       20
                               MATRIX PRECONDITIONING TYPE =        1
        RELAXATION FACTOR (ONLY USED WITH PRECOND. TYPE 1) =    0.10000E+01
 PARAMETER OF POLYNOMIAL PRECOND. = 2 (2) OR IS CALCULATED :        0
                         HEAD CHANGE CRITERION FOR CLOSURE =    0.10000E-04
                     RESIDUAL CHANGE CRITERION FOR CLOSURE =    0.10000E-04
            PCG HEAD AND RESIDUAL CHANGE PRINTOUT INTERVAL =      999
     PRINTING FROM SOLVER IS LIMITED(1) OR SUPPRESSED (>1) =        3
                            STEADY-STATE DAMPING PARAMETER =    0.10000E+01
                               TRANSIENT DAMPING PARAMETER =    0.10000E+01

 OBS2BAS7 -- HEAD OBSERVATIONS, VERSION 2.0, 2/28/2006
 INPUT READ FROM UNIT  39
 # HOB package for  MODFLOW-2005, generated by Flopy.

 NUMBER OF HEADS....................................:  132
   NUMBER OF MULTILAYER HEADS.......................:    0
   MAXIMUM NUMBER OF LAYERS FOR MULTILAYER HEADS....:    0
 HEAD OBSERVATIONS WILL BE SAVED ON UNIT............:   42
 SIMULATED EQUIVALENT HEAD AT DRY CELLS WILL BE:  -1.000000E+06

 OBSERVED HEAD DATA -- TIME OFFSETS ARE MULTIPLIED BY:   1.0000    

                    REFER.
       OBSERVATION  STRESS    TIME
  OBS#    NAME      PERIOD   OFFSET    OBSERVATION
     1 p1012_1          7    1.000       2202.    
     2 p1039_1          7    1.000       2248.    
     3 p1078_1          7    1.000       2201.    
     4 p1262_1          7    1.000       2202.    
     5 p1327_1          7    1.000       2194.    
     6 p1473_1          7    1.000       2179.    
     7 p1479_1          7    1.000       2217.    
     8 p1497_1          7    1.000       2192.    
     9 p160_1           7    1.000       2229.    
    10 p1619_1          7    1.000       2162.    
    11 p1646_1          7    1.000       2197.    
    12 p165_1           7    1.000       2211.    
    13 p1721_1          7    1.000       2208.    
    14 p1727_1          7    1.000       2188.    
    15 p1757_1          7    1.000       2201.    
    16 p1857_1          7    1.000       2202.    
    17 p1875_1          7    1.000       2196.    
    18 p1882_1          7    1.000       2202.    
    19 p1903_1          7    1.000       2203.    
    20 p1911_1          7    1.000       2196.    
    21 p1916_1          7    1.000       2193.    
    22 p1963_1          7    1.000       2209.    
    23 p1969_1          7    1.000       2195.    
    24 p1971_1          7    1.000       2184.    
    25 p1978_1          7    1.000       2192.    
    26 p1981_1          7    1.000       2194.    
    27 p2025_1          7    1.000       2227.    
    28 p2038_1          7    1.000       2192.    
    29 p2075_1          7    1.000       2200.    
    30 p2106_1          7    1.000       2200.    
    31 p2161_1          7    1.000       2199.    
    32 p2212_1          7    1.000       2199.    
    33 p2213_1          7    1.000       2186.    
    34 p2232_1          7    1.000       2220.    
    35 p2233_1          7    1.000       2191.    
    36 p2259_1          7    1.000       2200.    
    37 p2263_1          7    1.000       2199.    
    38 p2303_1          7    1.000       2192.    
    39 p2305_1          7    1.000       2206.    
    40 p2324_1          7    1.000       2213.    
    41 p2329_1          7    1.000       2198.    
    42 p2349_1          7    1.000       2200.    
    43 p2360_1          7    1.000       2202.    
    44 p2367_1          7    1.000       2205.    
    45 p2372_1          7    1.000       2193.    
    46 p2380_1          7    1.000       2210.    
    47 p2394_1          7    1.000       2203.    
    48 p2396_1          7    1.000       2204.    
    49 p2433_1          7    1.000       2209.    
    50 p2434_1          7    1.000       2199.    
    51 p2435_1          7    1.000       2207.    
    52 p2514_1          7    1.000       2196.    
    53 p2523_1          7    1.000       2231.    
    54 p2544_1          7    1.000       2224.    
    55 p2580_1          7    1.000       2198.    
    56 p2624_1          7    1.000       2214.    
    57 p2632_1          7    1.000       2182.    
    58 p2637_1          7    1.000       2199.    
    59 p267_1           7    1.000       2200.    
    60 p2679_1          7    1.000       2202.    
    61 p2680_1          7    1.000       2192.    
    62 p2681_1          7    1.000       2200.    
    63 p269_1           7    1.000       2187.    
    64 p287_1           7    1.000       2186.    
    65 p416_1           7    1.000       2203.    
    66 p480_1           7    1.000       2207.    
    67 p531_1           7    1.000       2203.    
    68 p689_1           7    1.000       2189.    
    69 p816_1           7    1.000       2201.    
    70 p857_1           7    1.000       2205.    
    71 p942_1           7    1.000       2201.    
    72 s188_1           7    1.000       2195.    
    73 sN_1_1           7    1.000       2198.    
    74 sPer_18_1        7    1.000       2197.    
    75 sS_9_1           7    1.000       2178.    
    76 sSC_2_1          7    1.000       2219.    
    77 sSC_3_1          7    1.000       2205.    
    78 sSC_6_1          7    1.000       2219.    
    79 sSL_15_1         7    1.000       2221.    
    80 sSL_16_1         7    1.000       2160.    
    81 sSL_2_1          7    1.000       2220.    
    82 sTec_10_1        7    1.000       2217.    
    83 t110_B_1         7    1.000       2220.    
    84 t119_B_1         7    1.000       2221.    
    85 t1528_V_1        7    1.000       2221.    
    86 t1541_1          7    1.000       2231.    
    87 t1549V_1         7    1.000       2226.    
    88 t1609_1          7    1.000       2219.    
    89 t1691_1          7    1.000       2208.    
    90 t1767_1          7    1.000       2217.    
    91 t1934V_1         7    1.000       2225.    
    92 t1944_1          7    1.000       2234.    
    93 t196A_1          7    1.000       2217.    
    94 t2146_1          7    1.000       2256.    
    95 t2147_1          7    1.000       2244.    
    96 t2235_1          7    1.000       2223.    
    97 t245_1           7    1.000       2224.    
    98 t45_AV_1         7    1.000       2224.    
    99 t46_A_1          7    1.000       2223.    
   100 t553_1           7    1.000       2281.    
   101 t58_A_1          7    1.000       2214.    
   102 t611_1           7    1.000       2220.    
   103 t79_B_1          7    1.000       2248.    
   104 t82_B_1          7    1.000       2217.    
   105 t83_B_1          7    1.000       2225.    
   106 t94_B_1          7    1.000       2224.    
   107 t98_B_1          7    1.000       2206.    
   108 t99_B_1          7    1.000       2224.    
   109 tB_155_1         7    1.000       2228.    
   110 tB_273_1         7    1.000       2219.    
   111 tB_426_1         7    1.000       2252.    
   112 tB_502_1         7    1.000       2222.    
   113 tB_693_1         7    1.000       2220.    
   114 tBO_37V_1        7    1.000       2226.    
   115 tC_771_1         7    1.000       2219.    
   116 tD_658_1         7    1.000       2206.    
   117 tD_675_1         7    1.000       2218.    
   118 tDO_35_1         7    1.000       2288.    
   119 tE_133_1         7    1.000       2303.    
   120 tE_708_1         7    1.000       2225.    
   121 tE_866_1         7    1.000       2219.    
   122 tEA_47_1         7    1.000       2220.    
   123 tEA_69_1         7    1.000       2220.    
   124 tEA_82_1         7    1.000       2233.    
   125 tEK_62_1         7    1.000       2218.    
   126 tEL_87V_1        7    1.000       2229.    
   127 tEN_97_1         7    1.000       2214.    
   128 tF_107_1         7    1.000       2219.    
   129 tF_131_1         7    1.000       2219.    
   130 tF_242_1         7    1.000       2220.    
   131 tF_626_1         7    1.000       2219.    
   132 tF_992_1         7    1.000       2198.    

                                                     HEAD CHANGE
                                                      REFERENCE
        OBSERVATION                   ROW     COL    OBSERVATION
  OBS#     NAME       LAY  ROW  COL  OFFSET  OFFSET   (IF > 0)
     1  p1012_1         2   48   64  -0.256   0.316        0
     2  p1039_1         2   75   46   0.426  -0.072        0
     3  p1078_1         2   64   60  -0.042   0.454        0
     4  p1262_1         2   72   62  -0.020  -0.104        0
     5  p1327_1         2   63   51   0.300  -0.440        0
     6  p1473_1         2   48   46   0.060  -0.094        0
     7  p1479_1         2   44   70  -0.474   0.282        0
     8  p1497_1         2   51   53   0.296  -0.036        0
     9  p160_1          2   53   62   0.250   0.318        0
    10  p1619_1         2   47   53   0.012   0.418        0
    11  p1646_1         2   50   61  -0.368   0.148        0
    12  p165_1          2   56   61  -0.250   0.386        0
    13  p1721_1         2   50   65  -0.022  -0.124        0
    14  p1727_1         2   40   56  -0.324   0.010        0
    15  p1757_1         2   61   62   0.084   0.212        0
    16  p1857_1         2   69   57   0.032   0.180        0
    17  p1875_1         2   43   58   0.282   0.150        0
    18  p1882_1         2   44   69   0.304  -0.298        0
    19  p1903_1         2   55   63  -0.340   0.090        0
    20  p1911_1         2   55   61  -0.314   0.440        0
    21  p1916_1         2   46   59  -0.266  -0.284        0
    22  p1963_1         2   60   52   0.232   0.200        0
    23  p1969_1         2   50   58  -0.384  -0.394        0
    24  p1971_1         2   51   48  -0.122   0.150        0
    25  p1978_1         2   52   65   0.132   0.380        0
    26  p1981_1         2   47   59   0.038   0.286        0
    27  p2025_1         2   73   48  -0.106  -0.298        0
    28  p2038_1         2   51   62   0.042  -0.108        0
    29  p2075_1         2   69   60   0.014  -0.162        0
    30  p2106_1         2   61   68  -0.286  -0.374        0
    31  p2161_1         2   70   61   0.296   0.024        0
    32  p2212_1         2   47   59  -0.032  -0.496        0
    33  p2213_1         2   85   55  -0.490  -0.158        0
    34  p2232_1         2   73   51   0.208   0.318        0
    35  p2233_1         2   50   47  -0.430  -0.066        0
    36  p2259_1         2   68   61  -0.100   0.310        0
    37  p2263_1         2   52   60  -0.350  -0.052        0
    38  p2303_1         2   50   47  -0.430  -0.066        0
    39  p2305_1         2   68   61  -0.100   0.310        0
    40  p2324_1         2   52   60  -0.350  -0.052        0
    41  p2329_1         2   68   66  -0.240   0.174        0
    42  p2349_1         2   55   56  -0.100   0.408        0
    43  p2360_1         2   59   54   0.434   0.436        0
    44  p2367_1         2   49   65   0.020  -0.204        0
    45  p2372_1         2   52   50  -0.378   0.092        0
    46  p2380_1         2   53   68   0.348   0.466        0
    47  p2394_1         2   62   56  -0.224  -0.178        0
    48  p2396_1         2   48   61  -0.252   0.062        0
    49  p2433_1         2   86   61  -0.332   0.276        0
    50  p2434_1         2   87   60  -0.412  -0.356        0
    51  p2435_1         2   88   58  -0.350  -0.036        0
    52  p2514_1         2   81   61   0.012   0.124        0
    53  p2523_1         2   63   34   0.018   0.286        0
    54  p2544_1         2   71   45  -0.054   0.304        0
    55  p2580_1         2   83   67  -0.250   0.226        0
    56  p2624_1         2   52   72   0.076   0.440        0
    57  p2632_1         2   41   46  -0.126   0.296        0
    58  p2637_1         2   77   75   0.466  -0.470        0
    59  p267_1          2   81   56   0.472   0.464        0
    60  p2679_1         2   60   67  -0.430   0.218        0
    61  p2680_1         2   42   60   0.108   0.270        0
    62  p2681_1         2   60   67  -0.430   0.218        0
    63  p269_1          2   48   58  -0.228  -0.182        0
    64  p287_1          2   88   57  -0.192  -0.272        0
    65  p416_1          2   88   57  -0.192  -0.272        0
    66  p480_1          2   88   57  -0.192  -0.272        0
    67  p531_1          2   45   65  -0.450   0.380        0
    68  p689_1          2   56   59   0.282  -0.382        0
    69  p816_1          2   86   61  -0.252  -0.056        0
    70  p857_1          2   66   54   0.272   0.144        0
    71  p942_1          2   60   72   0.104  -0.452        0
    72  s188_1          2   46   56   0.384  -0.200        0
    73  sN_1_1          2   89   64  -0.064  -0.376        0
    74  sPer_18_1       2   80   70  -0.186   0.108        0
    75  sS_9_1          2   89   63  -0.106  -0.448        0
    76  sSC_2_1         2   83   91  -0.190  -0.330        0
    77  sSC_3_1         2   83   89  -0.254   0.476        0
    78  sSC_6_1         2   81   82   0.266  -0.110        0
    79  sSL_15_1        2   93   77  -0.304   0.162        0
    80  sSL_16_1        2   94   76   0.148  -0.092        0
    81  sSL_2_1         2   92   86   0.380   0.066        0
    82  sTec_10_1       2  101   93   0.182   0.452        0
    83  t110_B_1        2   36  124  -0.496  -0.162        0
    84  t119_B_1        2   78  103   0.174   0.214        0
    85  t1528_V_1       2  102  107  -0.416  -0.112        0
    86  t1541_1         2   93  113   0.476  -0.204        0
    87  t1549V_1        2   96  120  -0.328   0.362        0
    88  t1609_1         2   81  107   0.068   0.112        0
    89  t1691_1         2   77  116  -0.488   0.446        0
    90  t1767_1         2   84  113  -0.314   0.378        0
    91  t1934V_1        2  104  118   0.118   0.058        0
    92  t1944_1         2   97  128  -0.314   0.196        0
    93  t196A_1         2   92  117  -0.100  -0.002        0
    94  t2146_1         2  102   97   0.318  -0.142        0
    95  t2147_1         2  103   94   0.026   0.054        0
    96  t2235_1         2  100   92   0.208   0.376        0
    97  t245_1          2   90  126  -0.194  -0.296        0
    98  t45_AV_1        2   36  122  -0.022  -0.244        0
    99  t46_A_1         2   36  123   0.394  -0.434        0
   100  t553_1          2   98  130   0.402  -0.210        0
   101  t58_A_1         2   33  113   0.072  -0.038        0
   102  t611_1          2   89  113  -0.234   0.200        0
   103  t79_B_1         2   96  110   0.072  -0.404        0
   104  t82_B_1         2  104   99  -0.248  -0.024        0
   105  t83_B_1         2   81   97   0.190   0.130        0
   106  t94_B_1         2  104  113  -0.074   0.282        0
   107  t98_B_1         2   59  103  -0.314   0.478        0
   108  t99_B_1         2  100  124  -0.114   0.178        0
   109  tB_155_1        2   27  104  -0.452   0.376        0
   110  tB_273_1        2   17  106  -0.348   0.160        0
   111  tB_426_1        2  103  133   0.462  -0.314        0
   112  tB_502_1        2  108  117   0.304   0.476        0
   113  tB_693_1        2   88  104   0.370   0.060        0
   114  tBO_37V_1       2   41  122  -0.240   0.220        0
   115  tC_771_1        2   56   97  -0.084   0.262        0
   116  tD_658_1        2   73  120   0.008  -0.002        0
   117  tD_675_1        2   77  120  -0.442   0.140        0
   118  tDO_35_1        2   27  131   0.292  -0.182        0
   119  tE_133_1        2   38  128   0.322   0.458        0
   120  tE_708_1        2   29  119  -0.338   0.406        0
   121  tE_866_1        2   25  113   0.414   0.284        0
   122  tEA_47_1        2   19  102   0.448  -0.164        0
   123  tEA_69_1        2   31  119  -0.482  -0.360        0
   124  tEA_82_1        2   28  122   0.254   0.076        0
   125  tEK_62_1        2   31  120   0.368   0.392        0
   126  tEL_87V_1       2   25  121   0.406   0.342        0
   127  tEN_97_1        2   35  114   0.274  -0.488        0
   128  tF_107_1        2   55  109  -0.138   0.180        0
   129  tF_131_1        2   56  108   0.262   0.204        0
   130  tF_242_1        2   58  108  -0.180  -0.002        0
   131  tF_626_1        2   58  106   0.318  -0.016        0
   132  tF_992_1        2   59  114  -0.280  -0.136        0
1
                            STRESS PERIOD NO.    1, LENGTH =   31.00000    
                            -----------------------------------------------

                              NUMBER OF TIME STEPS =    31

                               MULTIPLIER FOR DELT =     1.000

                            INITIAL TIME STEP SIZE =   1.000000    

 WELL NO.  LAYER   ROW   COL   STRESS RATE         
 --------------------------------------------------
      1      2     37     47      -3638.    
      2      2     43     47      -3019.    
      3      2     41     56      -2365.    
      4      2     43     49      -1049.    
      5      2     41     52      -5148.    
      6      2     46     52      -2548.    
      7      2     45     56      -5878.    
      8      2     36     51      -2414.    
      9      2     46     55      -3302.    
     10      2     47     52      -3736.    
     11      2     46     56      -3674.    
     12      2     46     54      -5395.    
     13      2     41     55      -973.0    
     14      2     44     55      -1630.    
     15      2     42     49      -2250.    
     16      2     39     47      -3148.    
     17      2     45     58      -3779.    
     18      2     40     47      -4515.    
     19      2     40     48      -6559.    
     20      2     41     34      -2268.    
     21      2     41     48      -1726.    
     22      2     39     50      -1392.    
     23      2     39     48      -2969.    
     24      2     44     48      -4567.    
     25      2     42     47      -1795.    
     26      2     41     45      -2455.    
     27      2     43     59      -4013.    
     28      2     40     50      -1173.    
     29      2     50     60      -259.0    
     30      2     57     66      -1812.    
     31      2     69     54      -1476.    
     32      2     78     57      -2151.    
     33      2     50     58      -1888.    
     34      2     60     52      -3021.    
     35      2     61     61      -2848.    
     36      2     60     61      -3927.    
     37      2     67     61      -2039.    
     38      2     59     61      -617.0    
     39      2     72     49      -1376.    
     40      2     58     57      -2718.    
     41      2     72     52      -2313.    
     42      2     64     51      -3349.    
     43      2     70     54      -1737.    
     44      2     58     67      -1543.    
     45      2     58     69      -1333.    
     46      2     59     52      -1632.    
     47      2     70     58      -807.0    
     48      2     54     48      -2718.    
     49      2     59     51      -1551.    
     50      2     53     48      -4466.    
     51      2     71     61      -6206.    
     52      2     71     57      -2894.    
     53      2     75     52      -831.0    
     54      2     61     66      -2067.    
     55      2     53     51      -3613.    
     56      2     61     60      -3023.    
     57      2     69     62      -3096.    
     58      2     57     50      -1435.    
     59      2     73     52      -2584.    
     60      2     51     47      -948.0    
     61      2     63     66      -4078.    
     62      2     73     50      -3172.    
     63      2     75     49      -2567.    
     64      2     78     50      -2167.    
     65      2     79     46      -1496.    
     66      2     80     44      -4480.    
     67      2     80     45      -1535.    
     68      2     60     53      -4263.    
     69      2     62     52      -2762.    
     70      2     67     52      -4024.    
     71      2     75     58      -2444.    
     72      2     65     57      -2190.    
     73      2     50     48      -4754.    
     74      2     73     58      -4455.    
     75      2     51     53      -3549.    
     76      2     50     52      -1722.    
     77      2     48     51      -1805.    
     78      2     62     52      -3323.    
     79      2     63     61      -2372.    
     80      2     63     52      -2233.    
     81      2     69     61      -4703.    
     82      2     62     62      -4750.    
     83      2     56     50      -3221.    
     84      2     65     62      -2039.    
     85      2     66     61      -4380.    
     86      2     67     58      -3897.    
     87      2     63     57      -948.0    
     88      2     74     56      -4135.    
     89      2     80     54      -4169.    
     90      2     50     45      -1876.    
     91      2     69     60      -2154.    
     92      2     48     53      -760.0    
     93      2     63     59      -7319.    
     94      2     73     55      -1964.    
     95      2     78     60      -1661.    
     96      2     50     53      -2039.    
     97      2     48     54      -5664.    
     98      2     49     47      -2870.    
     99      2     50     46      -2483.    
    100      2     66     66      -1133.    
    101      2     60     65      -1265.    
    102      2     84     52      -3359.    
    103      2     50     62      -2652.    
    104      2     70     87      -2750.    
    105      2     48     51      -5361.    
    106      2     74     48      -5967.    
    107      2     67     65      -4833.    
    108      2     81     51      -4309.    
    109      2     79     61      -1155.    
    110      2     78     61      -5459.    
    111      2     80     70      -2613.    
    112      2     82     51      -5910.    
    113      2     82     50      -4555.    
    114      2     81     46      -3266.    
    115      2     79     55      -2689.    
    116      2     78     57      -6705.    
    117      2     81     56      -3011.    
    118      2     80     58      -5546.    
    119      2     77     65      -3486.    
    120      2     75     51      -5150.    
    121      2     82     55      -1277.    
    122      2     77     57      -6419.    
    123      2     75     62      -1115.    
    124      2     76     62      -3280.    
    125      2     74     61      -3696.    
    126      2     87     53      -4020.    
    127      2     70     64      -5044.    
    128      2     83     66      -3695.    
    129      2     86     62      -3370.    
    130      2     84     64      -1631.    
    131      2     85     66      -5236.    
    132      2     73     64      -5796.    
    133      2     78     62      -876.0    
    134      2     82     63      -171.0    
    135      2     83     60      -6754.    
    136      2     83     59      -2410.    
    137      2     83     57      -2458.    
    138      2     85     59      -2912.    
    139      2     86     58      -2037.    
    140      2     88     63      -4281.    
    141      2     86     63      -2598.    
    142      2     85     68      -1280.    
    143      2     84     67      -2071.    
    144      2     78     63      -5422.    
    145      2     82     67      -4890.    
    146      2     80     62      -2103.    
    147      2     82     69     -0.1028E+05
    148      2     81     69      -2570.    
    149      2     80     70      -2575.    
    150      2     77     68      -5257.    
    151      2     81     78      -9267.    
    152      2     81     75      -6717.    
    153      2     79     77      -2074.    
    154      2     78     76      -89.00    
    155      2     84     53      -1258.    
    156      2     74     53      -983.0    
    157      2     87     55      -3695.    
    158      2     86     56      -345.0    
    159      2     85     52      -2826.    
    160      2     89     57      -4568.    
    161      2     89     57      -5106.    
    162      2     90     58      -1730.    
    163      2     89     58      -4340.    
    164      2     88     59      -2712.    
    165      2     86     61      -2595.    
    166      2     88     60      -1302.    
    167      2     89     59      -3398.    
    168      2     89     58      -4425.    
    169      2     84     54      -6307.    
    170      2     91     57      -2315.    
    171      2     88     52      -582.0    
    172      2    103     64      -1051.    
    173      2     84     57      -1296.    
    174      2     82     51      -1382.    
    175      2     84     50      -816.0    
    176      2     84     50      -1283.    
    177      2     84     50      -1304.    
    178      2     82     47      -480.0    
    179      2     82     43      -1919.    
    180      2     88     57      -2913.    
    181      2     82     44      -3659.    
    182      2     81     44      -1872.    
    183      2     83     46      -1973.    
    184      2     89     55      -2268.    
    185      2     84     50      -173.0    
    186      2     65     62      -3882.    
    187      2     89     64      -670.0    
    188      2     92     65      -4270.    
    189      2     92     66      -883.0    
    190      2     93     66     -0.1066E+05
    191      2     94     65      -3270.    
    192      2     95     67      -6785.    
    193      2     95     69      -8465.    
    194      2     98     65      -6055.    
    195      2     97     64      -523.0    
    196      2     96     68      -7803.    
    197      2     97     65      -4122.    
    198      2     97     70      -2061.    
    199      2     98     64      -2390.    
    200      2     98     70      -5742.    
    201      2     97     76      -5777.    
    202      2     95     67      -4996.    
    203      2     89     63      -5079.    
    204      2     90     61      -2475.    
    205      2     94     83      -2239.    
    206      2     94     77      -1693.    
    207      2     95     76      -4996.    
    208      2     92     86      -5719.    
    209      2     91     85      -2797.    
    210      2     91     85      -2086.    
    211      2     91     85      -4610.    
    212      2     91     85      -4856.    
    213      2     92     84      -8519.    
    214      2     93     83     -0.1025E+05
    215      2     92     83     -0.1071E+05
    216      2     93     82     -0.1651E+05
    217      2     93     81      -7877.    
    218      2     93     81      -8399.    
    219      2     93     80      -8170.    
    220      2     94     76      -4110.    
    221      2     93     76      -6084.    
    222      2     94     76      -9991.    
    223      2     95     74      -1832.    
    224      2     95     72      -6676.    
    225      2     94     83      -2729.    
    226      2     96     70      -6552.    
    227      2     96     66      -4122.    
    228      2     95     76      -515.0    
    229      2     93     63      -6196.    
    230      2     95     65      -2797.    
    231      2     89     60      -2797.    
    232      2     90     60      -3273.    
    233      2     88     61      -4362.    
    234      2     87     61      -5984.    
    235      2    100     66      -595.0    
    236      2     94     86      -1518.    
    237      2     95     88      -6098.    
    238      2     95     89      -2954.    
    239      2    106     87      -5117.    
    240      2    105     88      -3836.    
    241      2    105     88      -3377.    
    242      2    102     92      -1699.    
    243      2    101     93      -6022.    
    244      2    102     94      -6929.    
    245      2    102     95      -7744.    
    246      2    102     94      -5275.    
    247      2    101     95      -5594.    
    248      2    102     95      -5292.    
    249      2    102     96      -5540.    
    250      2     95     90      -4200.    
    251      2     94     90      -3952.    
    252      2     94     89      -9599.    
    253      2     94     89      -5436.    
    254      2     94     88      -5300.    
    255      2     93     88      -6127.    
    256      2     94     87     -0.1195E+05
    257      2     92     87      -6355.    
    258      2     60     72      -2908.    
    259      2     77     71      -433.0    
    260      2     77     71      -2337.    
    261      2     68     68      -1271.    
    262      2     69     71      -3678.    
    263      2     70     70      -5391.    
    264      2     68     79      -3110.    
    265      2     73     69      -4666.    
    266      2     73     75      -1468.    
    267      2     74     75      -5605.    
    268      2     73     74      -5093.    
    269      2     64     84      -3988.    
    270      2     68     83      -7427.    
    271      2     65     86      -8896.    
    272      2     67     81      -4290.    
    273      2     77     62      -5212.    
    274      2     67     85      -3963.    
    275      2     67     84      -1899.    
    276      2     66     83      -4995.    
    277      2     66     84      -2763.    
    278      2     70     75      -2985.    
    279      2     68     76      -1747.    
    280      2     64     51      -5382.    
    281      2     68     66      -2668.    
    282      2     68     65      -173.0    
    283      2     69     64      -1814.    
    284      2     69     65      -1443.    
    285      2     70     65      -4925.    
    286      2     70     65      -1123.    
    287      2     74     84      -4164.    
    288      2     66     50      -1706.    
    289      2     63     50      -2244.    
    290      2     70     46      -2226.    
    291      2     63     49      -3711.    
    292      2     68     50      -1361.    
    293      2     55     44      -1934.    
    294      2     68     49      -2059.    
    295      2     69     49      -853.0    
    296      2     74     46      -603.0    
    297      2     63     50      -1469.    
    298      2     50     45      -645.0    
    299      2     78     44      -1227.    
    300      2     68     46      -1006.    
    301      2     61     50      -4045.    
    302      2     61     48      -1220.    
    303      2     62     46      -690.0    
    304      2     74     42      -1627.    
    305      2     66     35      -2220.    

    305 WELLS



                           RECHARGE
 READING ON UNIT   19 WITH FORMAT: (168E15.6)          
 
 SOLVING FOR HEAD 

 OUTPUT CONTROL FOR STRESS PERIOD    1   TIME STEP    1
    SAVE HEAD FOR ALL LAYERS
    SAVE DRAWDOWN FOR ALL LAYERS
    SAVE BUDGET
    PRINT BUDGET
 UBDSV3 SAVING "        RECHARGE" ON UNIT   9 AT TIME STEP  1, STRESS PERIOD   1

 HEAD WILL BE SAVED ON UNIT   51 AT END OF TIME STEP    1, STRESS PERIOD    1

 DRAWDOWN WILL BE SAVED ON UNIT   52 AT END OF TIME STEP    1, STRESS PERIOD    1
1
  VOLUMETRIC BUDGET FOR ENTIRE MODEL AT END OF TIME STEP    1, STRESS PERIOD   1
  ------------------------------------------------------------------------------

     CUMULATIVE VOLUMES      L**3       RATES FOR THIS TIME STEP      L**3/T
     ------------------                 ------------------------

           IN:                                      IN:
           ---                                      ---
             STORAGE =   846578816.0000               STORAGE =   846578816.0000
       CONSTANT HEAD =           0.0000         CONSTANT HEAD =           0.0000
               WELLS =           0.0000                 WELLS =           0.0000
            RECHARGE =      801912.5625              RECHARGE =      801912.5625

            TOTAL IN =   847380736.0000              TOTAL IN =   847380736.0000

          OUT:                                     OUT:
          ----                                     ----
             STORAGE =   846113856.0000               STORAGE =   846113856.0000
       CONSTANT HEAD =           0.0000         CONSTANT HEAD =           0.0000
               WELLS =     1066346.0000                 WELLS =     1066346.0000
            RECHARGE =           0.0000              RECHARGE =           0.0000

           TOTAL OUT =   847180224.0000             TOTAL OUT =   847180224.0000

            IN - OUT =      200512.0000              IN - OUT =      200512.0000

 PERCENT DISCREPANCY =           0.02     PERCENT DISCREPANCY =           0.02






         TIME SUMMARY AT END OF TIME STEP    1 IN STRESS PERIOD    1
                    SECONDS     MINUTES      HOURS       DAYS        YEARS
                    -----------------------------------------------------------
   TIME STEP LENGTH  86400.      1440.0      24.000      1.0000     2.73785E-03
 STRESS PERIOD TIME  86400.      1440.0      24.000      1.0000     2.73785E-03
         TOTAL TIME  86400.      1440.0      24.000      1.0000     2.73785E-03
1
 
 SOLVING FOR HEAD 

 OUTPUT CONTROL FOR STRESS PERIOD    1   TIME STEP    2
    SAVE HEAD FOR ALL LAYERS
    SAVE DRAWDOWN FOR ALL LAYERS
    SAVE BUDGET
    PRINT BUDGET
 UBDSV3 SAVING "        RECHARGE" ON UNIT   9 AT TIME STEP  2, STRESS PERIOD   1

 HEAD WILL BE SAVED ON UNIT   51 AT END OF TIME STEP    2, STRESS PERIOD    1

 DRAWDOWN WILL BE SAVED ON UNIT   52 AT END OF TIME STEP    2, STRESS PERIOD    1
1
  VOLUMETRIC BUDGET FOR ENTIRE MODEL AT END OF TIME STEP    2, STRESS PERIOD   1
  ------------------------------------------------------------------------------

     CUMULATIVE VOLUMES      L**3       RATES FOR THIS TIME STEP      L**3/T
     ------------------                 ------------------------

           IN:                                      IN:
           ---                                      ---
             STORAGE =  1312361472.0000               STORAGE =   465782656.0000
       CONSTANT HEAD =           0.0000         CONSTANT HEAD =           0.0000
               WELLS =           0.0000                 WELLS =           0.0000
            RECHARGE =     1603825.1250              RECHARGE =      801912.5625

            TOTAL IN =  1313965312.0000              TOTAL IN =   466584576.0000

          OUT:                                     OUT:
          ----                                     ----
             STORAGE =  1311436416.0000               STORAGE =   465322592.0000
       CONSTANT HEAD =           0.0000         CONSTANT HEAD =           0.0000
               WELLS =     2132692.0000                 WELLS =     1066346.0000
            RECHARGE =           0.0000              RECHARGE =           0.0000

           TOTAL OUT =  1313569152.0000             TOTAL OUT =   466388928.0000

            IN - OUT =      396160.0000              IN - OUT =      195648.0000

 PERCENT DISCREPANCY =           0.03     PERCENT DISCREPANCY =           0.04






         TIME SUMMARY AT END OF TIME STEP    2 IN STRESS PERIOD    1
                    SECONDS     MINUTES      HOURS       DAYS        YEARS
                    -----------------------------------------------------------
   TIME STEP LENGTH  86400.      1440.0      24.000      1.0000     2.73785E-03
 STRESS PERIOD TIME 1.72800E+05  2880.0      48.000      2.0000     5.47570E-03
         TOTAL TIME 1.72800E+05  2880.0      48.000      2.0000     5.47570E-03
1
 
 SOLVING FOR HEAD 

 OUTPUT CONTROL FOR STRESS PERIOD    1   TIME STEP    3
    SAVE HEAD FOR ALL LAYERS
    SAVE DRAWDOWN FOR ALL LAYERS
    SAVE BUDGET
    PRINT BUDGET
 UBDSV3 SAVING "        RECHARGE" ON UNIT   9 AT TIME STEP  3, STRESS PERIOD   1

 HEAD WILL BE SAVED ON UNIT   51 AT END OF TIME STEP    3, STRESS PERIOD    1

 DRAWDOWN WILL BE SAVED ON UNIT   52 AT END OF TIME STEP    3, STRESS PERIOD    1
1
  VOLUMETRIC BUDGET FOR ENTIRE MODEL AT END OF TIME STEP    3, STRESS PERIOD   1
  ------------------------------------------------------------------------------

     CUMULATIVE VOLUMES      L**3       RATES FOR THIS TIME STEP      L**3/T
     ------------------                 ------------------------

           IN:                                      IN:
           ---                                      ---
             STORAGE =  1629646848.0000               STORAGE =   317285408.0000
       CONSTANT HEAD =           0.0000         CONSTANT HEAD =           0.0000
               WELLS =           0.0000                 WELLS =           0.0000
            RECHARGE =     2405737.7500              RECHARGE =      801912.5625

            TOTAL IN =  1632052608.0000              TOTAL IN =   318087328.0000

          OUT:                                     OUT:
          ----                                     ----
             STORAGE =  1628200448.0000               STORAGE =   316764000.0000
       CONSTANT HEAD =           0.0000         CONSTANT HEAD =           0.0000
               WELLS =     3199038.0000                 WELLS =     1066346.0000
            RECHARGE =           0.0000              RECHARGE =           0.0000

           TOTAL OUT =  1631399424.0000             TOTAL OUT =   317830336.0000

            IN - OUT =      653184.0000              IN - OUT =      256992.0000

 PERCENT DISCREPANCY =           0.04     PERCENT DISCREPANCY =           0.08






         TIME SUMMARY AT END OF TIME STEP    3 IN STRESS PERIOD    1
                    SECONDS     MINUTES      HOURS       DAYS        YEARS
                    -----------------------------------------------------------
   TIME STEP LENGTH  86400.      1440.0      24.000      1.0000     2.73785E-03
 STRESS PERIOD TIME 2.59200E+05  4320.0      72.000      3.0000     8.21355E-03
         TOTAL TIME 2.59200E+05  4320.0      72.000      3.0000     8.21355E-03
1
 
 SOLVING FOR HEAD 

 OUTPUT CONTROL FOR STRESS PERIOD    1   TIME STEP    4
    SAVE HEAD FOR ALL LAYERS
    SAVE DRAWDOWN FOR ALL LAYERS
    SAVE BUDGET
    PRINT BUDGET
 UBDSV3 SAVING "        RECHARGE" ON UNIT   9 AT TIME STEP  4, STRESS PERIOD   1

 HEAD WILL BE SAVED ON UNIT   51 AT END OF TIME STEP    4, STRESS PERIOD    1

 DRAWDOWN WILL BE SAVED ON UNIT   52 AT END OF TIME STEP    4, STRESS PERIOD    1
1
  VOLUMETRIC BUDGET FOR ENTIRE MODEL AT END OF TIME STEP    4, STRESS PERIOD   1
  ------------------------------------------------------------------------------

     CUMULATIVE VOLUMES      L**3       RATES FOR THIS TIME STEP      L**3/T
     ------------------                 ------------------------

           IN:                                      IN:
           ---                                      ---
             STORAGE =  1870961408.0000               STORAGE =   241314528.0000
       CONSTANT HEAD =           0.0000         CONSTANT HEAD =           0.0000
               WELLS =           0.0000                 WELLS =           0.0000
            RECHARGE =     3207650.2500              RECHARGE =      801912.5625

            TOTAL IN =  1874169088.0000              TOTAL IN =   242116448.0000

          OUT:                                     OUT:
          ----                                     ----
             STORAGE =  1869033728.0000               STORAGE =   240833216.0000
       CONSTANT HEAD =           0.0000         CONSTANT HEAD =           0.0000
               WELLS =     4265384.0000                 WELLS =     1066346.0000
            RECHARGE =           0.0000              RECHARGE =           0.0000

           TOTAL OUT =  1873299072.0000             TOTAL OUT =   241899568.0000

            IN - OUT =      870016.0000              IN - OUT =      216880.0000

 PERCENT DISCREPANCY =           0.05     PERCENT DISCREPANCY =           0.09






         TIME SUMMARY AT END OF TIME STEP    4 IN STRESS PERIOD    1
                    SECONDS     MINUTES      HOURS       DAYS        YEARS
                    -----------------------------------------------------------
   TIME STEP LENGTH  86400.      1440.0      24.000      1.0000     2.73785E-03
 STRESS PERIOD TIME 3.45600E+05  5760.0      96.000      4.0000     1.09514E-02
         TOTAL TIME 3.45600E+05  5760.0      96.000      4.0000     1.09514E-02
1
 
 SOLVING FOR HEAD 

 OUTPUT CONTROL FOR STRESS PERIOD    1   TIME STEP    5
    SAVE HEAD FOR ALL LAYERS
    SAVE DRAWDOWN FOR ALL LAYERS
    SAVE BUDGET
    PRINT BUDGET
 UBDSV3 SAVING "        RECHARGE" ON UNIT   9 AT TIME STEP  5, STRESS PERIOD   1

 HEAD WILL BE SAVED ON UNIT   51 AT END OF TIME STEP    5, STRESS PERIOD    1

 DRAWDOWN WILL BE SAVED ON UNIT   52 AT END OF TIME STEP    5, STRESS PERIOD    1
1
  VOLUMETRIC BUDGET FOR ENTIRE MODEL AT END OF TIME STEP    5, STRESS PERIOD   1
  ------------------------------------------------------------------------------

     CUMULATIVE VOLUMES      L**3       RATES FOR THIS TIME STEP      L**3/T
     ------------------                 ------------------------

           IN:                                      IN:
           ---                                      ---
             STORAGE =  2066899328.0000               STORAGE =   195937968.0000
       CONSTANT HEAD =           0.0000         CONSTANT HEAD =           0.0000
               WELLS =           0.0000                 WELLS =           0.0000
            RECHARGE =     4009562.7500              RECHARGE =      801912.5625

            TOTAL IN =  2070908928.0000              TOTAL IN =   196739888.0000

          OUT:                                     OUT:
          ----                                     ----
             STORAGE =  2064451840.0000               STORAGE =   195418048.0000
       CONSTANT HEAD =           0.0000         CONSTANT HEAD =           0.0000
               WELLS =     5331730.0000                 WELLS =     1066346.0000
            RECHARGE =           0.0000              RECHARGE =           0.0000

           TOTAL OUT =  2069783552.0000             TOTAL OUT =   196484400.0000

            IN - OUT =     1125376.0000              IN - OUT =      255488.0000

 PERCENT DISCREPANCY =           0.05     PERCENT DISCREPANCY =           0.13






         TIME SUMMARY AT END OF TIME STEP    5 IN STRESS PERIOD    1
                    SECONDS     MINUTES      HOURS       DAYS        YEARS
                    -----------------------------------------------------------
   TIME STEP LENGTH  86400.      1440.0      24.000      1.0000     2.73785E-03
 STRESS PERIOD TIME 4.32000E+05  7200.0      120.00      5.0000     1.36893E-02
         TOTAL TIME 4.32000E+05  7200.0      120.00      5.0000     1.36893E-02
1
 
 SOLVING FOR HEAD 

 OUTPUT CONTROL FOR STRESS PERIOD    1   TIME STEP    6
    SAVE HEAD FOR ALL LAYERS
    SAVE DRAWDOWN FOR ALL LAYERS
    SAVE BUDGET
    PRINT BUDGET
 UBDSV3 SAVING "        RECHARGE" ON UNIT   9 AT TIME STEP  6, STRESS PERIOD   1

 HEAD WILL BE SAVED ON UNIT   51 AT END OF TIME STEP    6, STRESS PERIOD    1

 DRAWDOWN WILL BE SAVED ON UNIT   52 AT END OF TIME STEP    6, STRESS PERIOD    1
1
  VOLUMETRIC BUDGET FOR ENTIRE MODEL AT END OF TIME STEP    6, STRESS PERIOD   1
  ------------------------------------------------------------------------------

     CUMULATIVE VOLUMES      L**3       RATES FOR THIS TIME STEP      L**3/T
     ------------------                 ------------------------

           IN:                                      IN:
           ---                                      ---
             STORAGE =  2232804352.0000               STORAGE =   165904944.0000
       CONSTANT HEAD =           0.0000         CONSTANT HEAD =           0.0000
               WELLS =           0.0000                 WELLS =           0.0000
            RECHARGE =     4811475.5000              RECHARGE =      801912.5625

            TOTAL IN =  2237615872.0000              TOTAL IN =   166706864.0000

          OUT:                                     OUT:
          ----                                     ----
             STORAGE =  2229875200.0000               STORAGE =   165423312.0000
       CONSTANT HEAD =           0.0000         CONSTANT HEAD =           0.0000
               WELLS =     6398076.0000                 WELLS =     1066346.0000
            RECHARGE =           0.0000              RECHARGE =           0.0000

           TOTAL OUT =  2236273152.0000             TOTAL OUT =   166489664.0000

            IN - OUT =     1342720.0000              IN - OUT =      217200.0000

 PERCENT DISCREPANCY =           0.06     PERCENT DISCREPANCY =           0.13






         TIME SUMMARY AT END OF TIME STEP    6 IN STRESS PERIOD    1
                    SECONDS     MINUTES      HOURS       DAYS        YEARS
                    -----------------------------------------------------------
   TIME STEP LENGTH  86400.      1440.0      24.000      1.0000     2.73785E-03
 STRESS PERIOD TIME 5.18400E+05  8640.0      144.00      6.0000     1.64271E-02
         TOTAL TIME 5.18400E+05  8640.0      144.00      6.0000     1.64271E-02
1
 
 SOLVING FOR HEAD 

 OUTPUT CONTROL FOR STRESS PERIOD    1   TIME STEP    7
    SAVE HEAD FOR ALL LAYERS
    SAVE DRAWDOWN FOR ALL LAYERS
    SAVE BUDGET
    PRINT BUDGET
 UBDSV3 SAVING "        RECHARGE" ON UNIT   9 AT TIME STEP  7, STRESS PERIOD   1

 HEAD WILL BE SAVED ON UNIT   51 AT END OF TIME STEP    7, STRESS PERIOD    1

 DRAWDOWN WILL BE SAVED ON UNIT   52 AT END OF TIME STEP    7, STRESS PERIOD    1
1
  VOLUMETRIC BUDGET FOR ENTIRE MODEL AT END OF TIME STEP    7, STRESS PERIOD   1
  ------------------------------------------------------------------------------

     CUMULATIVE VOLUMES      L**3       RATES FOR THIS TIME STEP      L**3/T
     ------------------                 ------------------------

           IN:                                      IN:
           ---                                      ---
             STORAGE =  2377345792.0000               STORAGE =   144541520.0000
       CONSTANT HEAD =           0.0000         CONSTANT HEAD =           0.0000
               WELLS =           0.0000                 WELLS =           0.0000
            RECHARGE =     5613388.0000              RECHARGE =      801912.5625

            TOTAL IN =  2382959104.0000              TOTAL IN =   145343440.0000

          OUT:                                     OUT:
          ----                                     ----
             STORAGE =  2373911552.0000               STORAGE =   144036288.0000
       CONSTANT HEAD =           0.0000         CONSTANT HEAD =           0.0000
               WELLS =     7464422.0000                 WELLS =     1066346.0000
            RECHARGE =           0.0000              RECHARGE =           0.0000

           TOTAL OUT =  2381376000.0000             TOTAL OUT =   145102640.0000

            IN - OUT =     1583104.0000              IN - OUT =      240800.0000

 PERCENT DISCREPANCY =           0.07     PERCENT DISCREPANCY =           0.17






         TIME SUMMARY AT END OF TIME STEP    7 IN STRESS PERIOD    1
                    SECONDS     MINUTES      HOURS       DAYS        YEARS
                    -----------------------------------------------------------
   TIME STEP LENGTH  86400.      1440.0      24.000      1.0000     2.73785E-03
 STRESS PERIOD TIME 6.04800E+05  10080.      168.00      7.0000     1.91650E-02
         TOTAL TIME 6.04800E+05  10080.      168.00      7.0000     1.91650E-02
1
 
 SOLVING FOR HEAD 

 OUTPUT CONTROL FOR STRESS PERIOD    1   TIME STEP    8
    SAVE HEAD FOR ALL LAYERS
    SAVE DRAWDOWN FOR ALL LAYERS
    SAVE BUDGET
    PRINT BUDGET
 UBDSV3 SAVING "        RECHARGE" ON UNIT   9 AT TIME STEP  8, STRESS PERIOD   1

 HEAD WILL BE SAVED ON UNIT   51 AT END OF TIME STEP    8, STRESS PERIOD    1

 DRAWDOWN WILL BE SAVED ON UNIT   52 AT END OF TIME STEP    8, STRESS PERIOD    1
1
  VOLUMETRIC BUDGET FOR ENTIRE MODEL AT END OF TIME STEP    8, STRESS PERIOD   1
  ------------------------------------------------------------------------------

     CUMULATIVE VOLUMES      L**3       RATES FOR THIS TIME STEP      L**3/T
     ------------------                 ------------------------

           IN:                                      IN:
           ---                                      ---
             STORAGE =  2505789184.0000               STORAGE =   128443408.0000
       CONSTANT HEAD =           0.0000         CONSTANT HEAD =           0.0000
               WELLS =           0.0000                 WELLS =           0.0000
            RECHARGE =     6415300.5000              RECHARGE =      801912.5625

            TOTAL IN =  2512204544.0000              TOTAL IN =   129245320.0000

          OUT:                                     OUT:
          ----                                     ----
             STORAGE =  2501885952.0000               STORAGE =   127974368.0000
       CONSTANT HEAD =           0.0000         CONSTANT HEAD =           0.0000
               WELLS =     8530768.0000                 WELLS =     1066346.0000
            RECHARGE =           0.0000              RECHARGE =           0.0000

           TOTAL OUT =  2510416640.0000             TOTAL OUT =   129040712.0000

            IN - OUT =     1787904.0000              IN - OUT =      204608.0000

 PERCENT DISCREPANCY =           0.07     PERCENT DISCREPANCY =           0.16






         TIME SUMMARY AT END OF TIME STEP    8 IN STRESS PERIOD    1
                    SECONDS     MINUTES      HOURS       DAYS        YEARS
                    -----------------------------------------------------------
   TIME STEP LENGTH  86400.      1440.0      24.000      1.0000     2.73785E-03
 STRESS PERIOD TIME 6.91200E+05  11520.      192.00      8.0000     2.19028E-02
         TOTAL TIME 6.91200E+05  11520.      192.00      8.0000     2.19028E-02
1
 
 SOLVING FOR HEAD 

 OUTPUT CONTROL FOR STRESS PERIOD    1   TIME STEP    9
    SAVE HEAD FOR ALL LAYERS
    SAVE DRAWDOWN FOR ALL LAYERS
    SAVE BUDGET
    PRINT BUDGET
 UBDSV3 SAVING "        RECHARGE" ON UNIT   9 AT TIME STEP  9, STRESS PERIOD   1

 HEAD WILL BE SAVED ON UNIT   51 AT END OF TIME STEP    9, STRESS PERIOD    1

 DRAWDOWN WILL BE SAVED ON UNIT   52 AT END OF TIME STEP    9, STRESS PERIOD    1
1
  VOLUMETRIC BUDGET FOR ENTIRE MODEL AT END OF TIME STEP    9, STRESS PERIOD   1
  ------------------------------------------------------------------------------

     CUMULATIVE VOLUMES      L**3       RATES FOR THIS TIME STEP      L**3/T
     ------------------                 ------------------------

           IN:                                      IN:
           ---                                      ---
             STORAGE =  2621832192.0000               STORAGE =   116042992.0000
       CONSTANT HEAD =           0.0000         CONSTANT HEAD =           0.0000
               WELLS =           0.0000                 WELLS =           0.0000
            RECHARGE =     7217213.0000              RECHARGE =      801912.5625

            TOTAL IN =  2629049344.0000              TOTAL IN =   116844904.0000

          OUT:                                     OUT:
          ----                                     ----
             STORAGE =  2617425152.0000               STORAGE =   115539208.0000
       CONSTANT HEAD =           0.0000         CONSTANT HEAD =           0.0000
               WELLS =     9597114.0000                 WELLS =     1066346.0000
            RECHARGE =           0.0000              RECHARGE =           0.0000

           TOTAL OUT =  2627022336.0000             TOTAL OUT =   116605552.0000

            IN - OUT =     2027008.0000              IN - OUT =      239352.0000

 PERCENT DISCREPANCY =           0.08     PERCENT DISCREPANCY =           0.21






         TIME SUMMARY AT END OF TIME STEP    9 IN STRESS PERIOD    1
                    SECONDS     MINUTES      HOURS       DAYS        YEARS
                    -----------------------------------------------------------
   TIME STEP LENGTH  86400.      1440.0      24.000      1.0000     2.73785E-03
 STRESS PERIOD TIME 7.77600E+05  12960.      216.00      9.0000     2.46407E-02
         TOTAL TIME 7.77600E+05  12960.      216.00      9.0000     2.46407E-02
1
 
 SOLVING FOR HEAD 

 OUTPUT CONTROL FOR STRESS PERIOD    1   TIME STEP   10
    SAVE HEAD FOR ALL LAYERS
    SAVE DRAWDOWN FOR ALL LAYERS
    SAVE BUDGET
    PRINT BUDGET
 UBDSV3 SAVING "        RECHARGE" ON UNIT   9 AT TIME STEP 10, STRESS PERIOD   1

 HEAD WILL BE SAVED ON UNIT   51 AT END OF TIME STEP   10, STRESS PERIOD    1

 DRAWDOWN WILL BE SAVED ON UNIT   52 AT END OF TIME STEP   10, STRESS PERIOD    1
1
  VOLUMETRIC BUDGET FOR ENTIRE MODEL AT END OF TIME STEP   10, STRESS PERIOD   1
  ------------------------------------------------------------------------------

     CUMULATIVE VOLUMES      L**3       RATES FOR THIS TIME STEP      L**3/T
     ------------------                 ------------------------

           IN:                                      IN:
           ---                                      ---
             STORAGE =  2727953152.0000               STORAGE =   106120872.0000
       CONSTANT HEAD =           0.0000         CONSTANT HEAD =           0.0000
               WELLS =           0.0000                 WELLS =           0.0000
            RECHARGE =     8019125.5000              RECHARGE =      801912.5625

            TOTAL IN =  2735972352.0000              TOTAL IN =   106922784.0000

          OUT:                                     OUT:
          ----                                     ----
             STORAGE =  2723055360.0000               STORAGE =   105630272.0000
       CONSTANT HEAD =           0.0000         CONSTANT HEAD =           0.0000
               WELLS =    10663460.0000                 WELLS =     1066346.0000
            RECHARGE =           0.0000              RECHARGE =           0.0000

           TOTAL OUT =  2733718784.0000             TOTAL OUT =   106696616.0000

            IN - OUT =     2253568.0000              IN - OUT =      226168.0000

 PERCENT DISCREPANCY =           0.08     PERCENT DISCREPANCY =           0.21






         TIME SUMMARY AT END OF TIME STEP   10 IN STRESS PERIOD    1
                    SECONDS     MINUTES      HOURS       DAYS        YEARS
                    -----------------------------------------------------------
   TIME STEP LENGTH  86400.      1440.0      24.000      1.0000     2.73785E-03
 STRESS PERIOD TIME 8.64000E+05  14400.      240.00      10.000     2.73785E-02
         TOTAL TIME 8.64000E+05  14400.      240.00      10.000     2.73785E-02
1
 
 SOLVING FOR HEAD 

 OUTPUT CONTROL FOR STRESS PERIOD    1   TIME STEP   11
    SAVE HEAD FOR ALL LAYERS
    SAVE DRAWDOWN FOR ALL LAYERS
    SAVE BUDGET
    PRINT BUDGET
 UBDSV3 SAVING "        RECHARGE" ON UNIT   9 AT TIME STEP 11, STRESS PERIOD   1

 HEAD WILL BE SAVED ON UNIT   51 AT END OF TIME STEP   11, STRESS PERIOD    1

 DRAWDOWN WILL BE SAVED ON UNIT   52 AT END OF TIME STEP   11, STRESS PERIOD    1
1
  VOLUMETRIC BUDGET FOR ENTIRE MODEL AT END OF TIME STEP   11, STRESS PERIOD   1
  ------------------------------------------------------------------------------

     CUMULATIVE VOLUMES      L**3       RATES FOR THIS TIME STEP      L**3/T
     ------------------                 ------------------------

           IN:                                      IN:
           ---                                      ---
             STORAGE =  2825895168.0000               STORAGE =    97942008.0000
       CONSTANT HEAD =           0.0000         CONSTANT HEAD =           0.0000
               WELLS =           0.0000                 WELLS =           0.0000
            RECHARGE =     8821038.0000              RECHARGE =      801912.5625

            TOTAL IN =  2834716160.0000              TOTAL IN =    98743920.0000

          OUT:                                     OUT:
          ----                                     ----
             STORAGE =  2820499456.0000               STORAGE =    97444080.0000
       CONSTANT HEAD =           0.0000         CONSTANT HEAD =           0.0000
               WELLS =    11729806.0000                 WELLS =     1066346.0000
            RECHARGE =           0.0000              RECHARGE =           0.0000

           TOTAL OUT =  2832229376.0000             TOTAL OUT =    98510424.0000

            IN - OUT =     2486784.0000              IN - OUT =      233496.0000

 PERCENT DISCREPANCY =           0.09     PERCENT DISCREPANCY =           0.24






         TIME SUMMARY AT END OF TIME STEP   11 IN STRESS PERIOD    1
                    SECONDS     MINUTES      HOURS       DAYS        YEARS
                    -----------------------------------------------------------
   TIME STEP LENGTH  86400.      1440.0      24.000      1.0000     2.73785E-03
 STRESS PERIOD TIME 9.50400E+05  15840.      264.00      11.000     3.01164E-02
         TOTAL TIME 9.50400E+05  15840.      264.00      11.000     3.01164E-02
1
 
 SOLVING FOR HEAD 

 OUTPUT CONTROL FOR STRESS PERIOD    1   TIME STEP   12
    SAVE HEAD FOR ALL LAYERS
    SAVE DRAWDOWN FOR ALL LAYERS
    SAVE BUDGET
    PRINT BUDGET
 UBDSV3 SAVING "        RECHARGE" ON UNIT   9 AT TIME STEP 12, STRESS PERIOD   1

 HEAD WILL BE SAVED ON UNIT   51 AT END OF TIME STEP   12, STRESS PERIOD    1

 DRAWDOWN WILL BE SAVED ON UNIT   52 AT END OF TIME STEP   12, STRESS PERIOD    1
1
  VOLUMETRIC BUDGET FOR ENTIRE MODEL AT END OF TIME STEP   12, STRESS PERIOD   1
  ------------------------------------------------------------------------------

     CUMULATIVE VOLUMES      L**3       RATES FOR THIS TIME STEP      L**3/T
     ------------------                 ------------------------

           IN:                                      IN:
           ---                                      ---
             STORAGE =  2916929536.0000               STORAGE =    91034312.0000
       CONSTANT HEAD =           0.0000         CONSTANT HEAD =           0.0000
               WELLS =           0.0000                 WELLS =           0.0000
            RECHARGE =     9622951.0000              RECHARGE =      801912.5625

            TOTAL IN =  2926552576.0000              TOTAL IN =    91836224.0000

          OUT:                                     OUT:
          ----                                     ----
             STORAGE =  2911046400.0000               STORAGE =    90546960.0000
       CONSTANT HEAD =           0.0000         CONSTANT HEAD =           0.0000
               WELLS =    12796152.0000                 WELLS =     1066346.0000
            RECHARGE =           0.0000              RECHARGE =           0.0000

           TOTAL OUT =  2923842560.0000             TOTAL OUT =    91613304.0000

            IN - OUT =     2710016.0000              IN - OUT =      222920.0000

 PERCENT DISCREPANCY =           0.09     PERCENT DISCREPANCY =           0.24






         TIME SUMMARY AT END OF TIME STEP   12 IN STRESS PERIOD    1
                    SECONDS     MINUTES      HOURS       DAYS        YEARS
                    -----------------------------------------------------------
   TIME STEP LENGTH  86400.      1440.0      24.000      1.0000     2.73785E-03
 STRESS PERIOD TIME 1.03680E+06  17280.      288.00      12.000     3.28542E-02
         TOTAL TIME 1.03680E+06  17280.      288.00      12.000     3.28542E-02
1
 
 SOLVING FOR HEAD 

 OUTPUT CONTROL FOR STRESS PERIOD    1   TIME STEP   13
    SAVE HEAD FOR ALL LAYERS
    SAVE DRAWDOWN FOR ALL LAYERS
    SAVE BUDGET
    PRINT BUDGET
 UBDSV3 SAVING "        RECHARGE" ON UNIT   9 AT TIME STEP 13, STRESS PERIOD   1

 HEAD WILL BE SAVED ON UNIT   51 AT END OF TIME STEP   13, STRESS PERIOD    1

 DRAWDOWN WILL BE SAVED ON UNIT   52 AT END OF TIME STEP   13, STRESS PERIOD    1
1
  VOLUMETRIC BUDGET FOR ENTIRE MODEL AT END OF TIME STEP   13, STRESS PERIOD   1
  ------------------------------------------------------------------------------

     CUMULATIVE VOLUMES      L**3       RATES FOR THIS TIME STEP      L**3/T
     ------------------                 ------------------------

           IN:                                      IN:
           ---                                      ---
             STORAGE =  3002120192.0000               STORAGE =    85190680.0000
       CONSTANT HEAD =           0.0000         CONSTANT HEAD =           0.0000
               WELLS =           0.0000                 WELLS =           0.0000
            RECHARGE =    10424864.0000              RECHARGE =      801912.5625

            TOTAL IN =  3012545024.0000              TOTAL IN =    85992592.0000

          OUT:                                     OUT:
          ----                                     ----
             STORAGE =  2995736064.0000               STORAGE =    84689696.0000
       CONSTANT HEAD =           0.0000         CONSTANT HEAD =           0.0000
               WELLS =    13862498.0000                 WELLS =     1066346.0000
            RECHARGE =           0.0000              RECHARGE =           0.0000

           TOTAL OUT =  3009598464.0000             TOTAL OUT =    85756040.0000

            IN - OUT =     2946560.0000              IN - OUT =      236552.0000

 PERCENT DISCREPANCY =           0.10     PERCENT DISCREPANCY =           0.28






         TIME SUMMARY AT END OF TIME STEP   13 IN STRESS PERIOD    1
                    SECONDS     MINUTES      HOURS       DAYS        YEARS
                    -----------------------------------------------------------
   TIME STEP LENGTH  86400.      1440.0      24.000      1.0000     2.73785E-03
 STRESS PERIOD TIME 1.12320E+06  18720.      312.00      13.000     3.55921E-02
         TOTAL TIME 1.12320E+06  18720.      312.00      13.000     3.55921E-02
1
 
 SOLVING FOR HEAD 

 OUTPUT CONTROL FOR STRESS PERIOD    1   TIME STEP   14
    SAVE HEAD FOR ALL LAYERS
    SAVE DRAWDOWN FOR ALL LAYERS
    SAVE BUDGET
    PRINT BUDGET
 UBDSV3 SAVING "        RECHARGE" ON UNIT   9 AT TIME STEP 14, STRESS PERIOD   1

 HEAD WILL BE SAVED ON UNIT   51 AT END OF TIME STEP   14, STRESS PERIOD    1

 DRAWDOWN WILL BE SAVED ON UNIT   52 AT END OF TIME STEP   14, STRESS PERIOD    1
1
  VOLUMETRIC BUDGET FOR ENTIRE MODEL AT END OF TIME STEP   14, STRESS PERIOD   1
  ------------------------------------------------------------------------------

     CUMULATIVE VOLUMES      L**3       RATES FOR THIS TIME STEP      L**3/T
     ------------------                 ------------------------

           IN:                                      IN:
           ---                                      ---
             STORAGE =  3082226432.0000               STORAGE =    80106240.0000
       CONSTANT HEAD =           0.0000         CONSTANT HEAD =           0.0000
               WELLS =           0.0000                 WELLS =           0.0000
            RECHARGE =    11226777.0000              RECHARGE =      801912.5625

            TOTAL IN =  3093453312.0000              TOTAL IN =    80908152.0000

          OUT:                                     OUT:
          ----                                     ----
             STORAGE =  3075344384.0000               STORAGE =    79608360.0000
       CONSTANT HEAD =           0.0000         CONSTANT HEAD =           0.0000
               WELLS =    14928844.0000                 WELLS =     1066346.0000
            RECHARGE =           0.0000              RECHARGE =           0.0000

           TOTAL OUT =  3090273280.0000             TOTAL OUT =    80674704.0000

            IN - OUT =     3180032.0000              IN - OUT =      233448.0000

 PERCENT DISCREPANCY =           0.10     PERCENT DISCREPANCY =           0.29






         TIME SUMMARY AT END OF TIME STEP   14 IN STRESS PERIOD    1
                    SECONDS     MINUTES      HOURS       DAYS        YEARS
                    -----------------------------------------------------------
   TIME STEP LENGTH  86400.      1440.0      24.000      1.0000     2.73785E-03
 STRESS PERIOD TIME 1.20960E+06  20160.      336.00      14.000     3.83299E-02
         TOTAL TIME 1.20960E+06  20160.      336.00      14.000     3.83299E-02
1
 
 SOLVING FOR HEAD 

 OUTPUT CONTROL FOR STRESS PERIOD    1   TIME STEP   15
    SAVE HEAD FOR ALL LAYERS
    SAVE DRAWDOWN FOR ALL LAYERS
    SAVE BUDGET
    PRINT BUDGET
 UBDSV3 SAVING "        RECHARGE" ON UNIT   9 AT TIME STEP 15, STRESS PERIOD   1

 HEAD WILL BE SAVED ON UNIT   51 AT END OF TIME STEP   15, STRESS PERIOD    1

 DRAWDOWN WILL BE SAVED ON UNIT   52 AT END OF TIME STEP   15, STRESS PERIOD    1
1
  VOLUMETRIC BUDGET FOR ENTIRE MODEL AT END OF TIME STEP   15, STRESS PERIOD   1
  ------------------------------------------------------------------------------

     CUMULATIVE VOLUMES      L**3       RATES FOR THIS TIME STEP      L**3/T
     ------------------                 ------------------------

           IN:                                      IN:
           ---                                      ---
             STORAGE =  3157932288.0000               STORAGE =    75705792.0000
       CONSTANT HEAD =           0.0000         CONSTANT HEAD =           0.0000
               WELLS =           0.0000                 WELLS =           0.0000
            RECHARGE =    12028690.0000              RECHARGE =      801912.5625

            TOTAL IN =  3169960960.0000              TOTAL IN =    76507704.0000

          OUT:                                     OUT:
          ----                                     ----
             STORAGE =  3150546432.0000               STORAGE =    75202024.0000
       CONSTANT HEAD =           0.0000         CONSTANT HEAD =           0.0000
               WELLS =    15995190.0000                 WELLS =     1066346.0000
            RECHARGE =           0.0000              RECHARGE =           0.0000

           TOTAL OUT =  3166541568.0000             TOTAL OUT =    76268368.0000

            IN - OUT =     3419392.0000              IN - OUT =      239336.0000

 PERCENT DISCREPANCY =           0.11     PERCENT DISCREPANCY =           0.31






         TIME SUMMARY AT END OF TIME STEP   15 IN STRESS PERIOD    1
                    SECONDS     MINUTES      HOURS       DAYS        YEARS
                    -----------------------------------------------------------
   TIME STEP LENGTH  86400.      1440.0      24.000      1.0000     2.73785E-03
 STRESS PERIOD TIME 1.29600E+06  21600.      360.00      15.000     4.10678E-02
         TOTAL TIME 1.29600E+06  21600.      360.00      15.000     4.10678E-02
1
 
 SOLVING FOR HEAD 

 OUTPUT CONTROL FOR STRESS PERIOD    1   TIME STEP   16
    SAVE HEAD FOR ALL LAYERS
    SAVE DRAWDOWN FOR ALL LAYERS
    SAVE BUDGET
    PRINT BUDGET
 UBDSV3 SAVING "        RECHARGE" ON UNIT   9 AT TIME STEP 16, STRESS PERIOD   1

 HEAD WILL BE SAVED ON UNIT   51 AT END OF TIME STEP   16, STRESS PERIOD    1

 DRAWDOWN WILL BE SAVED ON UNIT   52 AT END OF TIME STEP   16, STRESS PERIOD    1
1
  VOLUMETRIC BUDGET FOR ENTIRE MODEL AT END OF TIME STEP   16, STRESS PERIOD   1
  ------------------------------------------------------------------------------

     CUMULATIVE VOLUMES      L**3       RATES FOR THIS TIME STEP      L**3/T
     ------------------                 ------------------------

           IN:                                      IN:
           ---                                      ---
             STORAGE =  3229743104.0000               STORAGE =    71810864.0000
       CONSTANT HEAD =           0.0000         CONSTANT HEAD =           0.0000
               WELLS =           0.0000                 WELLS =           0.0000
            RECHARGE =    12830603.0000              RECHARGE =      801912.5625

            TOTAL IN =  3242573824.0000              TOTAL IN =    72612776.0000

          OUT:                                     OUT:
          ----                                     ----
             STORAGE =  3221851648.0000               STORAGE =    71305312.0000
       CONSTANT HEAD =           0.0000         CONSTANT HEAD =           0.0000
               WELLS =    17061536.0000                 WELLS =     1066346.0000
            RECHARGE =           0.0000              RECHARGE =           0.0000

           TOTAL OUT =  3238913280.0000             TOTAL OUT =    72371656.0000

            IN - OUT =     3660544.0000              IN - OUT =      241120.0000

 PERCENT DISCREPANCY =           0.11     PERCENT DISCREPANCY =           0.33






         TIME SUMMARY AT END OF TIME STEP   16 IN STRESS PERIOD    1
                    SECONDS     MINUTES      HOURS       DAYS        YEARS
                    -----------------------------------------------------------
   TIME STEP LENGTH  86400.      1440.0      24.000      1.0000     2.73785E-03
 STRESS PERIOD TIME 1.38240E+06  23040.      384.00      16.000     4.38056E-02
         TOTAL TIME 1.38240E+06  23040.      384.00      16.000     4.38056E-02
1
 
 SOLVING FOR HEAD 

 OUTPUT CONTROL FOR STRESS PERIOD    1   TIME STEP   17
    SAVE HEAD FOR ALL LAYERS
    SAVE DRAWDOWN FOR ALL LAYERS
    SAVE BUDGET
    PRINT BUDGET
 UBDSV3 SAVING "        RECHARGE" ON UNIT   9 AT TIME STEP 17, STRESS PERIOD   1

 HEAD WILL BE SAVED ON UNIT   51 AT END OF TIME STEP   17, STRESS PERIOD    1

 DRAWDOWN WILL BE SAVED ON UNIT   52 AT END OF TIME STEP   17, STRESS PERIOD    1
1
  VOLUMETRIC BUDGET FOR ENTIRE MODEL AT END OF TIME STEP   17, STRESS PERIOD   1
  ------------------------------------------------------------------------------

     CUMULATIVE VOLUMES      L**3       RATES FOR THIS TIME STEP      L**3/T
     ------------------                 ------------------------

           IN:                                      IN:
           ---                                      ---
             STORAGE =  3298087424.0000               STORAGE =    68344336.0000
       CONSTANT HEAD =           0.0000         CONSTANT HEAD =           0.0000
               WELLS =           0.0000                 WELLS =           0.0000
            RECHARGE =    13632516.0000              RECHARGE =      801912.5625

            TOTAL IN =  3311719936.0000              TOTAL IN =    69146248.0000

          OUT:                                     OUT:
          ----                                     ----
             STORAGE =  3289707776.0000               STORAGE =    67856112.0000
       CONSTANT HEAD =           0.0000         CONSTANT HEAD =           0.0000
               WELLS =    18127882.0000                 WELLS =     1066346.0000
            RECHARGE =           0.0000              RECHARGE =           0.0000

           TOTAL OUT =  3307835648.0000             TOTAL OUT =    68922456.0000

            IN - OUT =     3884288.0000              IN - OUT =      223792.0000

 PERCENT DISCREPANCY =           0.12     PERCENT DISCREPANCY =           0.32






         TIME SUMMARY AT END OF TIME STEP   17 IN STRESS PERIOD    1
                    SECONDS     MINUTES      HOURS       DAYS        YEARS
                    -----------------------------------------------------------
   TIME STEP LENGTH  86400.      1440.0      24.000      1.0000     2.73785E-03
 STRESS PERIOD TIME 1.46880E+06  24480.      408.00      17.000     4.65435E-02
         TOTAL TIME 1.46880E+06  24480.      408.00      17.000     4.65435E-02
1
 
 SOLVING FOR HEAD 

 OUTPUT CONTROL FOR STRESS PERIOD    1   TIME STEP   18
    SAVE HEAD FOR ALL LAYERS
    SAVE DRAWDOWN FOR ALL LAYERS
    SAVE BUDGET
    PRINT BUDGET
 UBDSV3 SAVING "        RECHARGE" ON UNIT   9 AT TIME STEP 18, STRESS PERIOD   1

 HEAD WILL BE SAVED ON UNIT   51 AT END OF TIME STEP   18, STRESS PERIOD    1

 DRAWDOWN WILL BE SAVED ON UNIT   52 AT END OF TIME STEP   18, STRESS PERIOD    1
1
  VOLUMETRIC BUDGET FOR ENTIRE MODEL AT END OF TIME STEP   18, STRESS PERIOD   1
  ------------------------------------------------------------------------------

     CUMULATIVE VOLUMES      L**3       RATES FOR THIS TIME STEP      L**3/T
     ------------------                 ------------------------

           IN:                                      IN:
           ---                                      ---
[...]
   TIME STEP LENGTH  86400.      1440.0      24.000      1.0000     2.73785E-03
 STRESS PERIOD TIME 2.33280E+06  38880.      648.00      27.000     7.39220E-02
         TOTAL TIME 3.12768E+07 5.21280E+05  8688.0      362.00     0.99110    
1
 
 SOLVING FOR HEAD 

 OUTPUT CONTROL FOR STRESS PERIOD   12   TIME STEP   28
    SAVE HEAD FOR ALL LAYERS
    SAVE DRAWDOWN FOR ALL LAYERS
    SAVE BUDGET
    PRINT BUDGET
 UBDSV3 SAVING "        RECHARGE" ON UNIT   9 AT TIME STEP 28, STRESS PERIOD  12

 HEAD WILL BE SAVED ON UNIT   51 AT END OF TIME STEP   28, STRESS PERIOD   12

 DRAWDOWN WILL BE SAVED ON UNIT   52 AT END OF TIME STEP   28, STRESS PERIOD   12
1
  VOLUMETRIC BUDGET FOR ENTIRE MODEL AT END OF TIME STEP   28, STRESS PERIOD  12
  ------------------------------------------------------------------------------

     CUMULATIVE VOLUMES      L**3       RATES FOR THIS TIME STEP      L**3/T
     ------------------                 ------------------------

           IN:                                      IN:
           ---                                      ---
             STORAGE =  7071803904.0000               STORAGE =     4245113.5000
       CONSTANT HEAD =           0.0000         CONSTANT HEAD =           0.0000
               WELLS =           0.0000                 WELLS =           0.0000
            RECHARGE =  1098283392.0000              RECHARGE =      224780.7656

            TOTAL IN =  8170087424.0000              TOTAL IN =     4469894.5000

          OUT:                                     OUT:
          ----                                     ----
             STORAGE =  7719427072.0000               STORAGE =     3320915.7500
       CONSTANT HEAD =           0.0000         CONSTANT HEAD =           0.0000
               WELLS =   402321632.0000                 WELLS =     1049097.0000
            RECHARGE =           0.0000              RECHARGE =           0.0000

           TOTAL OUT =  8121748480.0000             TOTAL OUT =     4370013.0000

            IN - OUT =    48338944.0000              IN - OUT =       99881.5000

 PERCENT DISCREPANCY =           0.59     PERCENT DISCREPANCY =           2.26






         TIME SUMMARY AT END OF TIME STEP   28 IN STRESS PERIOD   12
                    SECONDS     MINUTES      HOURS       DAYS        YEARS
                    -----------------------------------------------------------
   TIME STEP LENGTH  86400.      1440.0      24.000      1.0000     2.73785E-03
 STRESS PERIOD TIME 2.41920E+06  40320.      672.00      28.000     7.66598E-02
         TOTAL TIME 3.13632E+07 5.22720E+05  8712.0      363.00     0.99384    
1
 
 SOLVING FOR HEAD 

 OUTPUT CONTROL FOR STRESS PERIOD   12   TIME STEP   29
    SAVE HEAD FOR ALL LAYERS
    SAVE DRAWDOWN FOR ALL LAYERS
    SAVE BUDGET
    PRINT BUDGET
 UBDSV3 SAVING "        RECHARGE" ON UNIT   9 AT TIME STEP 29, STRESS PERIOD  12

 HEAD WILL BE SAVED ON UNIT   51 AT END OF TIME STEP   29, STRESS PERIOD   12

 DRAWDOWN WILL BE SAVED ON UNIT   52 AT END OF TIME STEP   29, STRESS PERIOD   12
1
  VOLUMETRIC BUDGET FOR ENTIRE MODEL AT END OF TIME STEP   29, STRESS PERIOD  12
  ------------------------------------------------------------------------------

     CUMULATIVE VOLUMES      L**3       RATES FOR THIS TIME STEP      L**3/T
     ------------------                 ------------------------

           IN:                                      IN:
           ---                                      ---
             STORAGE =  7076025856.0000               STORAGE =     4221850.0000
       CONSTANT HEAD =           0.0000         CONSTANT HEAD =           0.0000
               WELLS =           0.0000                 WELLS =           0.0000
            RECHARGE =  1098508160.0000              RECHARGE =      224780.7656

            TOTAL IN =  8174534144.0000              TOTAL IN =     4446631.0000

          OUT:                                     OUT:
          ----                                     ----
             STORAGE =  7722739200.0000               STORAGE =     3311914.2500
       CONSTANT HEAD =           0.0000         CONSTANT HEAD =           0.0000
               WELLS =   403370720.0000                 WELLS =     1049097.0000
            RECHARGE =           0.0000              RECHARGE =           0.0000

           TOTAL OUT =  8126109696.0000             TOTAL OUT =     4361011.0000

            IN - OUT =    48424448.0000              IN - OUT =       85620.0000

 PERCENT DISCREPANCY =           0.59     PERCENT DISCREPANCY =           1.94






         TIME SUMMARY AT END OF TIME STEP   29 IN STRESS PERIOD   12
                    SECONDS     MINUTES      HOURS       DAYS        YEARS
                    -----------------------------------------------------------
   TIME STEP LENGTH  86400.      1440.0      24.000      1.0000     2.73785E-03
 STRESS PERIOD TIME 2.50560E+06  41760.      696.00      29.000     7.93977E-02
         TOTAL TIME 3.14496E+07 5.24160E+05  8736.0      364.00     0.99658    
1
 
 SOLVING FOR HEAD 

 OUTPUT CONTROL FOR STRESS PERIOD   12   TIME STEP   30
    SAVE HEAD FOR ALL LAYERS
    SAVE DRAWDOWN FOR ALL LAYERS
    SAVE BUDGET
    PRINT BUDGET
 UBDSV3 SAVING "        RECHARGE" ON UNIT   9 AT TIME STEP 30, STRESS PERIOD  12

 HEAD WILL BE SAVED ON UNIT   51 AT END OF TIME STEP   30, STRESS PERIOD   12

 DRAWDOWN WILL BE SAVED ON UNIT   52 AT END OF TIME STEP   30, STRESS PERIOD   12
1
  VOLUMETRIC BUDGET FOR ENTIRE MODEL AT END OF TIME STEP   30, STRESS PERIOD  12
  ------------------------------------------------------------------------------

     CUMULATIVE VOLUMES      L**3       RATES FOR THIS TIME STEP      L**3/T
     ------------------                 ------------------------

           IN:                                      IN:
           ---                                      ---
             STORAGE =  7080267776.0000               STORAGE =     4241785.5000
       CONSTANT HEAD =           0.0000         CONSTANT HEAD =           0.0000
               WELLS =           0.0000                 WELLS =           0.0000
            RECHARGE =  1098732928.0000              RECHARGE =      224780.7656

            TOTAL IN =  8179000832.0000              TOTAL IN =     4466566.5000

          OUT:                                     OUT:
          ----                                     ----
             STORAGE =  7726047232.0000               STORAGE =     3308137.2500
       CONSTANT HEAD =           0.0000         CONSTANT HEAD =           0.0000
               WELLS =   404419808.0000                 WELLS =     1049097.0000
            RECHARGE =           0.0000              RECHARGE =           0.0000

           TOTAL OUT =  8130466816.0000             TOTAL OUT =     4357234.0000

            IN - OUT =    48534016.0000              IN - OUT =      109332.5000

 PERCENT DISCREPANCY =           0.60     PERCENT DISCREPANCY =           2.48






         TIME SUMMARY AT END OF TIME STEP   30 IN STRESS PERIOD   12
                    SECONDS     MINUTES      HOURS       DAYS        YEARS
                    -----------------------------------------------------------
   TIME STEP LENGTH  86400.      1440.0      24.000      1.0000     2.73785E-03
 STRESS PERIOD TIME 2.59200E+06  43200.      720.00      30.000     8.21355E-02
         TOTAL TIME 3.15360E+07 5.25600E+05  8760.0      365.00     0.99932    
1
 
 SOLVING FOR HEAD 

 OUTPUT CONTROL FOR STRESS PERIOD   12   TIME STEP   31
    SAVE HEAD FOR ALL LAYERS
    SAVE DRAWDOWN FOR ALL LAYERS
    SAVE BUDGET
    PRINT BUDGET
 UBDSV3 SAVING "        RECHARGE" ON UNIT   9 AT TIME STEP 31, STRESS PERIOD  12

 HEAD WILL BE SAVED ON UNIT   51 AT END OF TIME STEP   31, STRESS PERIOD   12

 DRAWDOWN WILL BE SAVED ON UNIT   52 AT END OF TIME STEP   31, STRESS PERIOD   12
1
  VOLUMETRIC BUDGET FOR ENTIRE MODEL AT END OF TIME STEP   31, STRESS PERIOD  12
  ------------------------------------------------------------------------------

     CUMULATIVE VOLUMES      L**3       RATES FOR THIS TIME STEP      L**3/T
     ------------------                 ------------------------

           IN:                                      IN:
           ---                                      ---
             STORAGE =  7084478976.0000               STORAGE =     4211266.5000
       CONSTANT HEAD =           0.0000         CONSTANT HEAD =           0.0000
               WELLS =           0.0000                 WELLS =           0.0000
            RECHARGE =  1098957696.0000              RECHARGE =      224780.7656

            TOTAL IN =  8183436800.0000              TOTAL IN =     4436047.5000

          OUT:                                     OUT:
          ----                                     ----
             STORAGE =  7729347584.0000               STORAGE =     3300176.0000
       CONSTANT HEAD =           0.0000         CONSTANT HEAD =           0.0000
               WELLS =   405468896.0000                 WELLS =     1049097.0000
            RECHARGE =           0.0000              RECHARGE =           0.0000

           TOTAL OUT =  8134816256.0000             TOTAL OUT =     4349273.0000

            IN - OUT =    48620544.0000              IN - OUT =       86774.5000

 PERCENT DISCREPANCY =           0.60     PERCENT DISCREPANCY =           1.98






         TIME SUMMARY AT END OF TIME STEP   31 IN STRESS PERIOD   12
                    SECONDS     MINUTES      HOURS       DAYS        YEARS
                    -----------------------------------------------------------
   TIME STEP LENGTH  86400.      1440.0      24.000      1.0000     2.73785E-03
 STRESS PERIOD TIME 2.67840E+06  44640.      744.00      31.000     8.48734E-02
         TOTAL TIME 3.16224E+07 5.27040E+05  8784.0      366.00      1.0021    
1

 HEAD AND DRAWDOWN OBSERVATIONS
 OBSERVATION       OBSERVED           SIMULATED
   NAME              VALUE              VALUE             DIFFERENCE
 --------------------------------------------------------------------
 p1012_1         2202.1740723        2253.0578613       -50.883789062    
 p1039_1         2247.9499512        2318.7956543       -70.845703125    
 p1078_1         2200.9851074        2255.1677246       -54.182617188    
 p1262_1         2202.3569336        2254.7966309       -52.439697266    
 p1327_1         2194.2780762        2261.2031250       -66.925048828    
 p1473_1         2179.4318848        2268.0761719       -88.644287109    
 p1479_1         2217.1411133        2249.1071777       -31.966064453    
 p1497_1         2192.4208984        2262.2751465       -69.854248047    
 p160_1          2229.4570312        2254.1674805       -24.710449219    
 p1619_1         2162.0209961        2262.2458496       -100.22485352    
 p1646_1         2196.6440430        2255.4294434       -58.785400391    
 p165_1          2211.0258789        2254.7587891       -43.732910156    
 p1721_1         2207.6411133        2252.3928223       -44.751708984    
 p1727_1         2187.5290527        2261.0290527       -73.500000000    
 p1757_1         2200.5830078        2253.9294434       -53.346435547    
 p1857_1         2201.8601074        2257.1821289       -55.322021484    
 p1875_1         2195.5800781        2258.7607422       -63.180664062    
 p1882_1         2202.3310547        2250.1306152       -47.799560547    
 p1903_1         2202.5590820        2253.4685059       -50.909423828    
 p1911_1         2195.6289062        2254.7822266       -59.153320312    
 p1916_1         2192.9008789        2257.9433594       -65.042480469    
 p1963_1         2209.2019043        2261.1806641       -51.978759766    
 p1969_1         2194.9431152        2258.4543457       -63.511230469    
 p1971_1         2183.8630371        2266.3012695       -82.438232422    
 p1978_1         2192.1520996        2251.8520508       -59.699951172    
 p1981_1         2194.2749023        2257.3024902       -63.027587891    
 p2025_1         2226.8579102        2264.7622070       -37.904296875    
 p2038_1         2191.7910156        2254.6801758       -62.889160156    
 p2075_1         2200.4079590        2255.6914062       -55.283447266    
 p2106_1         2199.8520508        2250.2849121       -50.432861328    
 p2161_1         2199.3090820        2255.0927734       -55.783691406    
 p2212_1         2199.4741211        2257.9726562       -58.498535156    
 p2213_1         2186.0620117        2258.2363281       -72.174316406    
 p2232_1         2219.9929199        2259.2905273       -39.297607422    
 p2233_1         2191.4628906        2267.3051758       -75.842285156    
 p2259_1         2200.3049316        2254.7575684       -54.452636719    
 p2263_1         2198.7980957        2256.2517090       -57.453613281    
 p2303_1         2192.4699707        2267.3051758       -74.835205078    
 p2305_1         2205.9260254        2254.7575684       -48.831542969    
 p2324_1         2212.8139648        2256.2517090       -43.437744141    
 p2329_1         2198.4160156        2251.8747559       -53.458740234    
 p2349_1         2200.1201172        2258.9443359       -58.824218750    
 p2360_1         2202.0400391        2259.8298340       -57.789794922    
 p2367_1         2204.7150879        2252.5441895       -47.829101562    
 p2372_1         2192.8740234        2264.6689453       -71.794921875    
 p2380_1         2210.2270508        2249.6215820       -39.394531250    
 p2394_1         2203.3391113        2258.4956055       -55.156494141    
 p2396_1         2203.5170898        2255.7177734       -52.200683594    
 p2433_1         2208.8830566        2256.3122559       -47.429199219    
 p2434_1         2199.3129883        2256.7419434       -57.428955078    
 p2435_1         2206.6789551        2256.9389648       -50.260009766    
 p2514_1         2196.1660156        2256.1362305       -59.970214844    
 p2523_1         2231.4741211        2510.7031250       -279.22900391    
 p2544_1         2223.7971191        2317.9023438       -94.105224609    
 p2580_1         2198.4519043        2254.3139648       -55.862060547    
 p2624_1         2213.5080566        2247.2780762       -33.770019531    
 p2632_1         2182.2810059        2267.2478027       -84.966796875    
 p2637_1         2198.7739258        2250.6027832       -51.828857422    
 p267_1          2200.3830566        2257.7375488       -57.354492188    
 p2679_1         2202.4899902        2250.4777832       -47.987792969    
 p2680_1         2192.2309570        2257.2194824       -64.988525391    
 p2681_1         2200.1650391        2250.4777832       -50.312744141    
 p269_1          2187.4470215        2258.4660645       -71.019042969    
 p287_1          2186.2849121        2260.4206543       -74.135742188    
 p416_1          2203.1179199        2260.4206543       -57.302734375    
 p480_1          2207.1750488        2260.4206543       -53.245605469    
 p531_1          2202.9460449        2252.6184082       -49.672363281    
 p689_1          2188.7790527        2256.9636230       -68.184570312    
 p816_1          2201.4770508        2256.4033203       -54.926269531    
 p857_1          2204.8649902        2258.9482422       -54.083251953    
 p942_1          2200.6799316        2247.9870605       -47.307128906    
 s188_1          2194.8930664        2260.3034668       -65.410400391    
 sN_1_1          2197.8330078        2255.7568359       -57.923828125    
 sPer_18_1       2197.3330078        2252.8247070       -55.491699219    
 sS_9_1          2178.1159668        2256.0090332       -77.893066406    
 sSC_2_1         2219.0300293        2259.7192383       -40.689208984    
 sSC_3_1         2205.1010742        2258.1540527       -53.052978516    
 sSC_6_1         2219.3349609        2242.9020996       -23.567138672    
 sSL_15_1        2221.4909668        2253.4560547       -31.965087891    
 sSL_16_1        2160.3730469        2253.8029785       -93.429931641    
 sSL_2_1         2219.9150391        2250.9067383       -30.991699219    
 sTec_10_1       2217.4379883        2249.6530762       -32.215087891    
 t110_B_1        2220.4499512        2300.1594238       -79.709472656    
 t119_B_1        2220.8500977        2245.6723633       -24.822265625    
 t1528_V_1       2221.1101074        2252.4692383       -31.359130859    
 t1541_1         2230.6799316        2253.4243164       -22.744384766    
 t1549V_1        2226.4199219        2256.3442383       -29.924316406    
 t1609_1         2218.9699707        2251.5163574       -32.546386719    
 t1691_1         2208.4599609        2254.3254395       -45.865478516    
 t1767_1         2217.4399414        2252.8225098       -35.382568359    
 t1934V_1        2225.0400391        2255.9382324       -30.898193359    
 t1944_1         2233.5300293        2271.1110840       -37.581054688    
 t196A_1         2217.0100098        2254.6440430       -37.634033203    
 t2146_1         2255.6298828        2250.1494141        5.4804687500    
 t2147_1         2243.5000000        2251.1042480       -7.6042480469    
 t2235_1         2223.1999512        2249.6242676       -26.424316406    
 t245_1          2223.8500977        2304.4973145       -80.647216797    
 t45_AV_1        2224.2299805        2258.6652832       -34.435302734    
 t46_A_1         2223.4399414        2287.6381836       -64.198242188    
 t553_1          2281.1000977        2324.0500488       -42.949951172    
 t58_A_1         2213.8400879        2246.2600098       -32.419921875    
 t611_1          2219.7900391        2253.0109863       -33.220947266    
 t79_B_1         2248.4199219        2252.6655273       -4.2456054688    
 t82_B_1         2216.7399902        2250.6660156       -33.926025391    
 t83_B_1         2225.2199707        2250.2170410       -24.997070312    
 t94_B_1         2224.2399902        2254.5649414       -30.324951172    
 t98_B_1         2206.2199707        2248.4992676       -42.279296875    
 t99_B_1         2224.3898926        2258.6501465       -34.260253906    
 tB_155_1        2227.5100098        2245.5971680       -18.087158203    
 tB_273_1        2219.2500000        2249.6203613       -30.370361328    
 tB_426_1        2251.5100098        2439.4689941       -187.95898438    
 tB_502_1        2221.7800293        2300.3493652       -78.569335938    
 tB_693_1        2220.3000488        2250.5263672       -30.226318359    
 tBO_37V_1       2226.3601074        2354.8635254       -128.50341797    
 tC_771_1        2218.9599609        2245.2802734       -26.320312500    
 tD_658_1        2206.1699219        2255.0559082       -48.885986328    
 tD_675_1        2218.2099609        2257.4252930       -39.215332031    
 tDO_35_1        2287.5000000        2359.9067383       -72.406738281    
 tE_133_1        2303.3100586        2456.2783203       -152.96826172    
 tE_708_1        2225.3100586        2247.2377930       -21.927734375    
 tE_866_1        2218.8100586        2261.0573730       -42.247314453    
 tEA_47_1        2219.8999023        2246.1679688       -26.268066406    
 tEA_69_1        2220.3798828        2247.1474609       -26.767578125    
 tEA_82_1        2232.6000977        2260.7126465       -28.112548828    
 tEK_62_1        2218.1699219        2247.3271484       -29.157226562    
 tEL_87V_1       2228.5800781        2247.4394531       -18.859375000    
 tEN_97_1        2213.9699707        2246.2309570       -32.260986328    
 tF_107_1        2219.1799316        2248.6679688       -29.488037109    
 tF_131_1        2219.4499512        2248.8781738       -29.428222656    
 tF_242_1        2219.5500488        2249.2504883       -29.700439453    
 tF_626_1        2219.3300781        2248.9638672       -29.633789062    
 tF_992_1        2198.0600586        2250.0966797       -52.036621094    

 HEAD/DRAWDOWN SUM OF SQUARED DIFFERENCE:    5.05828E+05

 Run end date and time (yyyy/mm/dd hh:mm:ss): 2019/06/24 19:13:14
 Elapsed run time:  3.488 Seconds

